<?xml version="1.0" encoding="UTF-8"?>

<!-- generated on Mon Jul 13 13:02:32 2020 by Eclipse SUMO Version v1_5_0+0662-a598ecae47
<configuration xmlns:xsi="http://www.w3.org/2001/XMLSchema-instance" xsi:noNamespaceSchemaLocation="http://sumo.dlr.de/xsd/sumoConfiguration.xsd">

    <input>
        <net-file value="/home/moyde/Documents/Studies/ETHZ/MS2/Research_Project/sumo-simulation/src/scenario/MoSTScenario/scenario/in/most.net.xml"/>
        <route-files value="/home/moyde/Documents/Studies/ETHZ/MS2/Research_Project/sumo-simulation/src/scenario/MoSTScenario/scenario/in/route/most.buses.flows.xml,/home/moyde/Documents/Studies/ETHZ/MS2/Research_Project/sumo-simulation/src/scenario/MoSTScenario/scenario/in/route/most.trains.flows.xml,/home/moyde/Documents/Studies/ETHZ/MS2/Research_Project/sumo-simulation/src/scenario/MoSTScenario/scenario/in/route/most.pedestrian.rou.xml,/home/moyde/Documents/Studies/ETHZ/MS2/Research_Project/sumo-simulation/src/scenario/MoSTScenario/scenario/in/route/most.commercial.rou.xml,/home/moyde/Documents/Studies/ETHZ/MS2/Research_Project/sumo-simulation/src/scenario/MoSTScenario/scenario/in/route/most.special.rou.xml,/home/moyde/Documents/Studies/ETHZ/MS2/Research_Project/sumo-simulation/src/scenario/MoSTScenario/scenario/in/route/most.highway.flows.xml"/>
        <additional-files value="/home/moyde/Documents/Studies/ETHZ/MS2/Research_Project/sumo-simulation/src/scenario/MoSTScenario/scenario/in/add/most.poly.xml,/home/moyde/Documents/Studies/ETHZ/MS2/Research_Project/sumo-simulation/src/scenario/MoSTScenario/scenario/in/add/most.busstops.add.xml,/home/moyde/Documents/Studies/ETHZ/MS2/Research_Project/sumo-simulation/src/scenario/MoSTScenario/scenario/in/add/most.trainstops.add.xml,/home/moyde/Documents/Studies/ETHZ/MS2/Research_Project/sumo-simulation/src/scenario/MoSTScenario/scenario/in/add/most.parking.allvisible.add.xml,/home/moyde/Documents/Studies/ETHZ/MS2/Research_Project/sumo-simulation/src/scenario/MoSTScenario/scenario/in/add/basic.vType.xml"/>
    </input>

    <output>
        <output-prefix value="most."/>
        <tripinfo-output value="/home/moyde/Documents/Studies/ETHZ/MS2/Research_Project/sumo-simulation/src/data/tripinfo.xml"/>
    </output>

    <time>
        <begin value="14400"/>
        <end value="50400"/>
        <step-length value=".25"/>
    </time>

    <processing>
        <lateral-resolution value="0.3"/>
        <ignore-junction-blocker value="30"/>
        <ignore-route-errors value="true"/>
        <collision.action value="none"/>
        <time-to-teleport value="120"/>
        <max-depart-delay value="900"/>
        <time-to-impatience value="30"/>
        <default.emergencydecel value="decel"/>
        <emergencydecel.warning-threshold value="1.1"/>
        <pedestrian.model value="striping"/>
        <pedestrian.striping.stripe-width value="0.55"/>
        <pedestrian.striping.jamtime value="30"/>
    </processing>

    <routing>
        <persontrip.transfer.car-walk value="parkingAreas,ptStops"/>
        <device.rerouting.probability value="1"/>
        <device.rerouting.period value="300"/>
        <device.rerouting.pre-period value="300"/>
    </routing>

    <report>
        <verbose value="true"/>
        <log value="/home/moyde/Documents/Studies/ETHZ/MS2/Research_Project/sumo-simulation/src/scenario/MoSTScenario/scenario/sim.log"/>
        <duration-log.statistics value="true"/>
    </report>

    <traci_server>
        <remote-port value="58225"/>
    </traci_server>

    <random_number>
        <seed value="42"/>
    </random_number>

    <gui_only>
        <tracker-interval value="0.25"/>
    </gui_only>

</configuration>
-->

<tripinfos xmlns:xsi="http://www.w3.org/2001/XMLSchema-instance" xsi:noNamespaceSchemaLocation="http://sumo.dlr.de/xsd/tripinfo_file.xsd">
</tripinfos>
